                                  MODFLOW-2005     
      U.S. GEOLOGICAL SURVEY MODULAR FINITE-DIFFERENCE GROUND-WATER FLOW MODEL
                            VERSION 1.9.00 3/30/2012

 LIST FILE: example_1.LST
                         UNIT    2

 OPENING example_1.DIS
 FILE TYPE:DIS   UNIT    3   STATUS:OLD    
 FORMAT:FORMATTED              ACCESS:SEQUENTIAL          

 OPENING example_1.BA6
 FILE TYPE:BAS6   UNIT    4   STATUS:OLD    
 FORMAT:FORMATTED              ACCESS:SEQUENTIAL          

 OPENING example_1.WEL
 FILE TYPE:WEL   UNIT   12   STATUS:OLD    
 FORMAT:FORMATTED              ACCESS:SEQUENTIAL          

 OPENING example_1.RIV
 FILE TYPE:RIV   UNIT   14   STATUS:OLD    
 FORMAT:FORMATTED              ACCESS:SEQUENTIAL          

 OPENING example_1.RCH
 FILE TYPE:RCH   UNIT   18   STATUS:OLD    
 FORMAT:FORMATTED              ACCESS:SEQUENTIAL          

 OPENING example_1.OC
 FILE TYPE:OC   UNIT   22   STATUS:OLD    
 FORMAT:FORMATTED              ACCESS:SEQUENTIAL          

 OPENING example_1.PCG
 FILE TYPE:PCG   UNIT   23   STATUS:OLD    
 FORMAT:FORMATTED              ACCESS:SEQUENTIAL          

 OPENING example_1.LPF
 FILE TYPE:LPF   UNIT   33   STATUS:OLD    
 FORMAT:FORMATTED              ACCESS:SEQUENTIAL          

 OPENING example_1.HED
 FILE TYPE:DATA(BINARY)   UNIT   50   STATUS:UNKNOWN
 FORMAT:BINARY                 ACCESS:SEQUENTIAL          

 OPENING example_1.BUD
 FILE TYPE:DATA(BINARY)   UNIT   53   STATUS:UNKNOWN
 FORMAT:BINARY                 ACCESS:SEQUENTIAL          

 BAS -- BASIC PACKAGE, VERSION 7, 5/2/2005 INPUT READ FROM UNIT    4
 
 MODFLOW was compiled using mixed precision
 Precision of REAL variables:           6
 Precision of DOUBLE PRECISION variables:          15

 DISCRETIZATION INPUT DATA READ FROM UNIT    3
    3 LAYERS        21 ROWS        20 COLUMNS
    1 STRESS PERIOD(S) IN SIMULATION
 MODEL TIME UNIT IS DAYS
 MODEL LENGTH UNIT IS FEET
  Confining bed flag for each layer:
   0   0   0

                     DELR =   500.000    

                     DELC =   500.000    

 TOP ELEVATION OF LAYER 1 =   400.000    

   MODEL LAYER BOTTOM EL. =   220.000     FOR LAYER   1

   MODEL LAYER BOTTOM EL. =   200.000     FOR LAYER   2

   MODEL LAYER BOTTOM EL. =   0.00000     FOR LAYER   3


 STRESS PERIOD     LENGTH       TIME STEPS     MULTIPLIER FOR DELT    SS FLAG
 ----------------------------------------------------------------------------
        1         1.000000          1                    1.000         SS

 STEADY-STATE SIMULATION



 
 THE FREE FORMAT OPTION HAS BEEN SELECTED

           BOUNDARY ARRAY =              1 FOR LAYER   1

           BOUNDARY ARRAY =              1 FOR LAYER   2

           BOUNDARY ARRAY =              1 FOR LAYER   3

 AQUIFER HEAD WILL BE SET TO  1.00000E+20 AT ALL NO-FLOW NODES (IBOUND=0).



                       INITIAL HEAD FOR LAYER   1
 READING ON UNIT    4 WITH FORMAT: (10F12.0)           

            1           2           3           4           5           6           7           8           9          10
           11          12          13          14          15          16          17          18          19          20
 ........................................................................................................................
   1    330.0       320.0       320.0       320.0       320.0       320.0       320.0       320.0       320.0       320.0    
        320.0       320.0       320.0       320.0       320.0       320.0       320.0       320.0       320.0       320.0    
   2    330.0       320.0       320.0       320.0       320.0       320.0       320.0       320.0       320.0       320.0    
        320.0       320.0       320.0       320.0       320.0       320.0       320.0       320.0       320.0       320.0    
   3    330.0       320.0       320.0       320.0       320.0       320.0       320.0       320.0       320.0       320.0    
        320.0       320.0       320.0       320.0       320.0       320.0       320.0       320.0       320.0       320.0    
   4    330.0       320.0       320.0       320.0       320.0       320.0       320.0       320.0       320.0       320.0    
        320.0       320.0       320.0       320.0       320.0       320.0       320.0       320.0       320.0       320.0    
   5    330.0       320.0       320.0       320.0       320.0       320.0       320.0       320.0       320.0       320.0    
        320.0       320.0       320.0       320.0       320.0       320.0       320.0       320.0       320.0       320.0    
   6    330.0       320.0       320.0       320.0       320.0       320.0       320.0       320.0       320.0       320.0    
        320.0       320.0       320.0       320.0       320.0       320.0       320.0       320.0       320.0       320.0    
   7    330.0       320.0       320.0       320.0       320.0       320.0       320.0       320.0       320.0       320.0    
        320.0       320.0       320.0       320.0       320.0       320.0       320.0       320.0       320.0       320.0    
   8    330.0       320.0       320.0       320.0       320.0       320.0       320.0       320.0       320.0       320.0    
        320.0       320.0       320.0       320.0       320.0       320.0       320.0       320.0       320.0       320.0    
   9    330.0       320.0       320.0       320.0       320.0       320.0       320.0       320.0       320.0       320.0    
        320.0       320.0       320.0       320.0       320.0       320.0       320.0       320.0       320.0       320.0    
  10    330.0       320.0       320.0       320.0       320.0       320.0       320.0       320.0       320.0       320.0    
        320.0       320.0       320.0       320.0       320.0       320.0       320.0       320.0       320.0       320.0    
  11    330.0       320.0       320.0       320.0       320.0       320.0       320.0       320.0       320.0       320.0    
        320.0       320.0       320.0       320.0       320.0       320.0       320.0       320.0       320.0       320.0    
  12    330.0       320.0       320.0       320.0       320.0       320.0       320.0       320.0       320.0       320.0    
        320.0       320.0       320.0       320.0       320.0       320.0       320.0       320.0       320.0       320.0    
  13    330.0       320.0       320.0       320.0       320.0       320.0       320.0       320.0       320.0       320.0    
        320.0       320.0       320.0       320.0       320.0       320.0       320.0       320.0       320.0       320.0    
  14    330.0       320.0       320.0       320.0       320.0       320.0       320.0       320.0       320.0       320.0    
        320.0       320.0       320.0       320.0       320.0       320.0       320.0       320.0       320.0       320.0    
  15    330.0       320.0       320.0       320.0       320.0       320.0       320.0       320.0       320.0       320.0    
        320.0       320.0       320.0       320.0       320.0       320.0       320.0       320.0       320.0       320.0    
  16    330.0       320.0       320.0       320.0       320.0       320.0       320.0       320.0       320.0       320.0    
        320.0       320.0       320.0       320.0       320.0       320.0       320.0       320.0       320.0       320.0    
  17    330.0       320.0       320.0       320.0       320.0       320.0       320.0       320.0       320.0       320.0    
        320.0       320.0       320.0       320.0       320.0       320.0       320.0       320.0       320.0       320.0    
  18    330.0       320.0       320.0       320.0       320.0       320.0       320.0       320.0       320.0       320.0    
        320.0       320.0       320.0       320.0       320.0       320.0       320.0       320.0       320.0       320.0    
  19    330.0       320.0       320.0       320.0       320.0       320.0       320.0       320.0       320.0       320.0    
        320.0       320.0       320.0       320.0       320.0       320.0       320.0       320.0       320.0       320.0    
  20    330.0       320.0       320.0       320.0       320.0       320.0       320.0       320.0       320.0       320.0    
        320.0       320.0       320.0       320.0       320.0       320.0       320.0       320.0       320.0       320.0    
  21    330.0       320.0       320.0       320.0       320.0       320.0       320.0       320.0       320.0       320.0    
        320.0       320.0       320.0       320.0       320.0       320.0       320.0       320.0       320.0       320.0    

             INITIAL HEAD =   320.000     FOR LAYER   2

             INITIAL HEAD =   320.000     FOR LAYER   3

 OUTPUT CONTROL IS SPECIFIED ONLY AT TIME STEPS FOR WHICH OUTPUT IS DESIRED
 COMPACT CELL-BY-CELL BUDGET FILES WILL BE WRITTEN
 AUXILIARY DATA WILL BE SAVED IN CELL-BY-CELL BUDGET FILES
 HEAD PRINT FORMAT CODE IS   0    DRAWDOWN PRINT FORMAT CODE IS   0
 HEADS WILL BE SAVED ON UNIT   50    DRAWDOWNS WILL BE SAVED ON UNIT    0

 LPF -- LAYER-PROPERTY FLOW PACKAGE, VERSION 7, 5/2/2005
         INPUT READ FROM UNIT   33
 CELL-BY-CELL FLOWS WILL BE SAVED ON UNIT   53
 HEAD AT CELLS THAT CONVERT TO DRY=  1.00000E+30
 No named parameters

   LAYER FLAGS:
 LAYER       LAYTYP        LAYAVG         CHANI        LAYVKA        LAYWET
 ---------------------------------------------------------------------------
    1             1             0     1.000E+00             0             0
    2             0             0     1.000E+00             0             0
    3             0             0     1.000E+00             0             0

   INTERPRETATION OF LAYER FLAGS:
                        INTERBLOCK     HORIZONTAL    DATA IN
         LAYER TYPE   TRANSMISSIVITY   ANISOTROPY   ARRAY VKA   WETTABILITY
 LAYER      (LAYTYP)      (LAYAVG)       (CHANI)      (LAYVKA)      (LAYWET)
 ---------------------------------------------------------------------------
    1   CONVERTIBLE      HARMONIC     1.000E+00    VERTICAL K  NON-WETTABLE
    2      CONFINED      HARMONIC     1.000E+00    VERTICAL K  NON-WETTABLE
    3      CONFINED      HARMONIC     1.000E+00    VERTICAL K  NON-WETTABLE

 WETTING CAPABILITY IS NOT ACTIVE IN ANY LAYER

    HYD. COND. ALONG ROWS =   50.0000     FOR LAYER   1

      VERTICAL HYD. COND. =   10.0000     FOR LAYER   1

    HYD. COND. ALONG ROWS =  1.000000E-02 FOR LAYER   2

      VERTICAL HYD. COND. =  1.000000E-02 FOR LAYER   2

    HYD. COND. ALONG ROWS =   200.000     FOR LAYER   3

      VERTICAL HYD. COND. =   20.0000     FOR LAYER   3

 WEL -- WELL PACKAGE, VERSION 7, 5/2/2005 INPUT READ FROM UNIT   12
 No named parameters
 MAXIMUM OF      1 ACTIVE WELLS AT ONE TIME
 CELL-BY-CELL FLOWS WILL BE SAVED ON UNIT   53
 AUXILIARY WELL VARIABLE: IFACE           


     0 Well parameters

 RIV -- RIVER PACKAGE, VERSION 7, 5/2/2005 INPUT READ FROM UNIT   14
 No named parameters
 MAXIMUM OF     21 ACTIVE RIVER REACHES AT ONE TIME
 CELL-BY-CELL FLOWS WILL BE SAVED ON UNIT   53
 AUXILIARY RIVER VARIABLE: IFACE           


     0 River parameters

 RCH -- RECHARGE PACKAGE, VERSION 7, 5/2/2005 INPUT READ FROM UNIT   18
 No named parameters
 OPTION 1 -- RECHARGE TO TOP LAYER
 CELL-BY-CELL FLOWS WILL BE SAVED ON UNIT   53


     0 Recharge parameters

 PCG -- CONJUGATE-GRADIENT SOLUTION PACKAGE, VERSION 7, 5/2/2005
 MAXIMUM OF     15 CALLS OF SOLUTION ROUTINE
 MAXIMUM OF     20 INTERNAL ITERATIONS PER CALL TO SOLUTION ROUTINE
 MATRIX PRECONDITIONING TYPE :    1



                                    SOLUTION BY THE CONJUGATE-GRADIENT METHOD
                                   -------------------------------------------
                    MAXIMUM NUMBER OF CALLS TO PCG ROUTINE =       15
                        MAXIMUM ITERATIONS PER CALL TO PCG =       20
                               MATRIX PRECONDITIONING TYPE =        1
        RELAXATION FACTOR (ONLY USED WITH PRECOND. TYPE 1) =    0.10000E+01
 PARAMETER OF POLYNOMIAL PRECOND. = 2 (2) OR IS CALCULATED :        2
                         HEAD CHANGE CRITERION FOR CLOSURE =    0.10000E-02
                     RESIDUAL CHANGE CRITERION FOR CLOSURE =    0.10000E+04
            PCG HEAD AND RESIDUAL CHANGE PRINTOUT INTERVAL =        1
     PRINTING FROM SOLVER IS LIMITED(1) OR SUPPRESSED (>1) =        0
                            STEADY-STATE DAMPING PARAMETER =    0.10000E+01
                               TRANSIENT DAMPING PARAMETER =    0.10000E+01
1
                            STRESS PERIOD NO.    1, LENGTH =   1.000000    
                            -----------------------------------------------

                              NUMBER OF TIME STEPS =     1

                               MULTIPLIER FOR DELT =     1.000

                            INITIAL TIME STEP SIZE =   1.000000    

 WELL NO.  LAYER   ROW   COL   STRESS RATE         IFACE           
 ------------------------------------------------------------------
      1      3     11     10     -0.1500E+06       0.000    

      1 WELL 

 REACH NO.  LAYER   ROW   COL     STAGE      CONDUCTANCE     BOTTOM EL.         IFACE           
 -----------------------------------------------------------------------------------------------
      1      1      1     20       320.0          0.1000E+06       317.0           6.000    
      2      1      2     20       320.0          0.1000E+06       317.0           6.000    
      3      1      3     20       320.0          0.1000E+06       317.0           6.000    
      4      1      4     20       320.0          0.1000E+06       317.0           6.000    
      5      1      5     20       320.0          0.1000E+06       317.0           6.000    
      6      1      6     20       320.0          0.1000E+06       317.0           6.000    
      7      1      7     20       320.0          0.1000E+06       317.0           6.000    
      8      1      8     20       320.0          0.1000E+06       317.0           6.000    
      9      1      9     20       320.0          0.1000E+06       317.0           6.000    
     10      1     10     20       320.0          0.1000E+06       317.0           6.000    
     11      1     11     20       320.0          0.1000E+06       317.0           6.000    
     12      1     12     20       320.0          0.1000E+06       317.0           6.000    
     13      1     13     20       320.0          0.1000E+06       317.0           6.000    
     14      1     14     20       320.0          0.1000E+06       317.0           6.000    
     15      1     15     20       320.0          0.1000E+06       317.0           6.000    
     16      1     16     20       320.0          0.1000E+06       317.0           6.000    
     17      1     17     20       320.0          0.1000E+06       317.0           6.000    
     18      1     18     20       320.0          0.1000E+06       317.0           6.000    
     19      1     19     20       320.0          0.1000E+06       317.0           6.000    
     20      1     20     20       320.0          0.1000E+06       317.0           6.000    
     21      1     21     20       320.0          0.1000E+06       317.0           6.000    

     21 RIVER REACHES

                 RECHARGE =  5.000000E-03
 
 SOLVING FOR HEAD 


     5 CALLS TO PCG ROUTINE FOR TIME STEP   1 IN STRESS PERIOD    1
    47 TOTAL ITERATIONS

 MAXIMUM HEAD CHANGE FOR EACH ITERATION (1 INDICATES THE FIRST INNER ITERATION):

    HEAD CHANGE    HEAD CHANGE    HEAD CHANGE    HEAD CHANGE    HEAD CHANGE 
   LAYER,ROW,COL  LAYER,ROW,COL  LAYER,ROW,COL  LAYER,ROW,COL  LAYER,ROW,COL
 ---------------------------------------------------------------------------
  1   12.69      0   12.17      0   4.343      0   7.953      0  -2.289    
   (  1, 21, 11)  (  1,  1,  2)  (  1,  1,  8)  (  1, 21,  2)  (  2, 21, 19)
  0   1.575      0   1.677      0   2.153      0  0.9827      0  0.7728    
   (  1, 21,  2)  (  2, 21,  1)  (  2, 21,  1)  (  2, 21,  1)  (  1, 20,  3)
  0 -0.2167      0  0.1942      0  0.7819E-01  0 -0.9982E-01  0 -0.9886E-01
   (  1, 21,  1)  (  2, 21, 19)  (  2, 21, 19)  (  2, 21,  1)  (  2, 21,  1)
  0 -0.5269E-01  0 -0.2106E-01  0 -0.1236E-01  0 -0.5194E-02  0  0.2755E-02
   (  2, 21,  1)  (  2, 21,  1)  (  1, 21,  3)  (  1, 19,  7)  (  1, 19,  2)
  1 -0.5695      0 -0.3243      0 -0.1715      0 -0.1869      0 -0.2065    
   (  1, 21,  6)  (  2, 21,  2)  (  1,  3,  7)  (  1,  1,  9)  (  1,  1, 11)
  0 -0.8204E-01  0 -0.4440E-01  0  0.2611E-01  0  0.1537E-01  0  0.1122E-01
   (  2, 20,  2)  (  1,  4,  4)  (  2, 21, 17)  (  1, 21,  4)  (  2, 21, 15)
  0  0.7593E-02  0 -0.5067E-02  0  0.2830E-02  0  0.2522E-02  0  0.1709E-02
   (  2, 21, 14)  (  2,  6, 19)  (  1, 21, 11)  (  2, 20, 12)  (  1, 21,  4)
  0 -0.7982E-03  1  0.2102E-01  0  0.1086E-01  0  0.6002E-02  0  0.6577E-02
   (  2,  3, 19)  (  1, 21,  5)  (  2, 21,  3)  (  1,  3,  6)  (  1,  1,  7)
  0  0.7344E-02  0  0.3048E-02  0  0.1741E-02  0  0.8149E-03  1 -0.1266E-02
   (  1,  1, 10)  (  2, 20,  1)  (  2,  2,  1)  (  2,  1, 11)  (  1, 21,  4)
  0  0.4001E-03  1 -0.2397E-03
   (  1, 21, 10)  (  1, 21, 12)

 MAXIMUM RESIDUAL FOR EACH ITERATION (1 INDICATES THE FIRST INNER ITERATION):

    RESIDUAL       RESIDUAL       RESIDUAL       RESIDUAL       RESIDUAL    
   LAYER,ROW,COL  LAYER,ROW,COL  LAYER,ROW,COL  LAYER,ROW,COL  LAYER,ROW,COL
 ---------------------------------------------------------------------------
  1  0.1211E+06  0  0.7725E+05  0  0.5198E+05  0  0.3097E+05  0  0.1816E+05
   (  3, 11, 10)  (  3, 11, 10)  (  3, 11, 10)  (  3, 11, 10)  (  1,  1,  1)
  0  0.1393E+05  0  0.1024E+05  0   6231.      0  -3715.      0  -2245.    
   (  1,  1,  1)  (  1,  1,  1)  (  1,  1,  1)  (  1, 20,  3)  (  1, 20,  3)
  0  -1636.      0  -782.0      0  -538.5      0  -434.1      0  -242.2    
   (  1, 20,  3)  (  1, 20,  3)  (  1,  1, 20)  (  1,  1, 20)  (  1,  1, 20)
  0  -152.2      0  -75.09      0  -38.70      0  -19.16      0  -14.43    
   (  1,  1, 20)  (  1,  1, 20)  (  1,  1, 20)  (  1,  1, 20)  (  1,  1, 20)
  1  -429.6      0  -339.9      0  -365.9      0   369.2      0   372.5    
   (  1, 21, 19)  (  1, 21, 19)  (  1, 21, 18)  (  1,  1, 14)  (  1,  1, 16)
  0   301.1      0   225.3      0   141.0      0   88.47      0  -57.80    
   (  1,  1, 17)  (  1,  1, 18)  (  1,  1, 19)  (  1,  1, 19)  (  1, 20, 20)
  0  -38.22      0  -25.00      0  -19.15      0  -14.20      0  -8.148    
   (  1, 20, 20)  (  1, 20, 20)  (  3, 21, 19)  (  3, 21, 19)  (  3, 21, 19)
  0   5.018      1   17.40      0   12.14      0  -12.38      0  -13.12    
   (  1,  1, 20)  (  1, 21, 17)  (  1, 21, 17)  (  1,  1, 11)  (  1,  1, 13)
  0  -12.45      0  -9.424      0  -6.552      0  -3.673      1  -3.140    
   (  1,  1, 15)  (  1,  1, 16)  (  1,  1, 17)  (  1,  1, 18)  (  1,  1, 18)
  0   2.289      1   2.265    
   (  1, 20, 20)  (  1, 20, 20)



 OUTPUT CONTROL FOR STRESS PERIOD    1   TIME STEP    1
    PRINT BUDGET
    SAVE BUDGET
    PRINT HEAD FOR ALL LAYERS
    SAVE HEAD FOR ALL LAYERS
 UBDSV2 SAVING "   CONSTANT HEAD" ON UNIT  53 AT TIME STEP  1, STRESS PERIOD   1
 UBDSV1 SAVING "FLOW RIGHT FACE " ON UNIT  53 AT TIME STEP  1, STRESS PERIOD   1
 UBDSV1 SAVING "FLOW FRONT FACE " ON UNIT  53 AT TIME STEP  1, STRESS PERIOD   1
 UBDSV1 SAVING "FLOW LOWER FACE " ON UNIT  53 AT TIME STEP  1, STRESS PERIOD   1
 UBDSV4 SAVING "           WELLS" ON UNIT  53 AT TIME STEP  1, STRESS PERIOD   1
 UBDSV4 SAVING "   RIVER LEAKAGE" ON UNIT  53 AT TIME STEP  1, STRESS PERIOD   1
 UBDSV3 SAVING "        RECHARGE" ON UNIT  53 AT TIME STEP  1, STRESS PERIOD   1
1
              HEAD IN LAYER   1 AT END OF TIME STEP   1 IN STRESS PERIOD    1
  ---------------------------------------------------------------------------

            1           2           3           4           5           6           7           8           9          10
           11          12          13          14          15          16          17          18          19          20
 ........................................................................................................................
   1    339.1       339.0       338.9       338.7       338.5       338.2       337.9       337.4       336.9       336.3    
        335.6       334.7       333.7       332.6       331.3       329.7       327.9       325.8       323.2       320.2    
   2    339.1       339.0       338.9       338.7       338.5       338.2       337.9       337.4       336.9       336.3    
        335.6       334.7       333.7       332.6       331.3       329.7       327.9       325.8       323.2       320.2    
   3    339.1       339.0       338.9       338.7       338.5       338.2       337.8       337.4       336.9       336.3    
        335.6       334.7       333.7       332.6       331.3       329.7       327.9       325.7       323.2       320.2    
   4    339.1       339.0       338.9       338.7       338.5       338.2       337.8       337.4       336.9       336.3    
        335.5       334.7       333.7       332.6       331.3       329.7       327.9       325.7       323.2       320.2    
   5    339.1       339.0       338.9       338.7       338.5       338.2       337.8       337.4       336.9       336.2    
        335.5       334.7       333.7       332.6       331.3       329.7       327.9       325.7       323.2       320.2    
   6    339.1       339.0       338.9       338.7       338.5       338.2       337.8       337.4       336.8       336.2    
        335.5       334.7       333.7       332.6       331.2       329.7       327.9       325.7       323.2       320.2    
   7    339.0       339.0       338.9       338.7       338.5       338.2       337.8       337.4       336.8       336.2    
        335.5       334.7       333.7       332.6       331.2       329.7       327.9       325.7       323.2       320.2    
   8    339.0       339.0       338.9       338.7       338.5       338.2       337.8       337.3       336.8       336.2    
        335.5       334.6       333.7       332.5       331.2       329.7       327.9       325.7       323.2       320.2    
   9    339.0       339.0       338.9       338.7       338.5       338.1       337.8       337.3       336.8       336.2    
        335.5       334.6       333.7       332.5       331.2       329.7       327.9       325.7       323.2       320.2    
  10    339.0       339.0       338.9       338.7       338.4       338.1       337.8       337.3       336.8       336.2    
        335.4       334.6       333.7       332.5       331.2       329.7       327.9       325.7       323.2       320.2    
  11    339.0       339.0       338.9       338.7       338.4       338.1       337.8       337.3       336.8       336.2    
        335.4       334.6       333.7       332.5       331.2       329.7       327.9       325.7       323.2       320.2    
  12    339.0       339.0       338.9       338.7       338.4       338.1       337.8       337.3       336.8       336.2    
        335.4       334.6       333.7       332.5       331.2       329.7       327.9       325.7       323.2       320.2    
  13    339.0       339.0       338.9       338.7       338.5       338.1       337.8       337.3       336.8       336.2    
        335.5       334.6       333.7       332.5       331.2       329.7       327.9       325.7       323.2       320.2    
  14    339.0       339.0       338.9       338.7       338.5       338.2       337.8       337.3       336.8       336.2    
        335.5       334.6       333.7       332.5       331.2       329.7       327.9       325.7       323.2       320.2    
  15    339.0       339.0       338.9       338.7       338.5       338.2       337.8       337.4       336.8       336.2    
        335.5       334.7       333.7       332.6       331.2       329.7       327.9       325.7       323.2       320.2    
  16    339.1       339.0       338.9       338.7       338.5       338.2       337.8       337.4       336.8       336.2    
        335.5       334.7       333.7       332.6       331.2       329.7       327.9       325.7       323.2       320.2    
  17    339.1       339.0       338.9       338.7       338.5       338.2       337.8       337.4       336.9       336.2    
        335.5       334.7       333.7       332.6       331.3       329.7       327.9       325.7       323.2       320.2    
  18    339.1       339.0       338.9       338.7       338.5       338.2       337.8       337.4       336.9       336.3    
        335.5       334.7       333.7       332.6       331.3       329.7       327.9       325.7       323.2       320.2    
  19    339.1       339.0       338.9       338.7       338.5       338.2       337.8       337.4       336.9       336.3    
        335.6       334.7       333.7       332.6       331.3       329.7       327.9       325.7       323.2       320.2    
  20    339.1       339.0       338.9       338.7       338.5       338.2       337.9       337.4       336.9       336.3    
        335.6       334.7       333.7       332.6       331.3       329.7       327.9       325.8       323.2       320.2    
  21    339.1       339.0       338.9       338.7       338.5       338.2       337.9       337.4       336.9       336.3    
        335.6       334.7       333.7       332.6       331.3       329.7       327.9       325.8       323.2       320.2    
1
              HEAD IN LAYER   2 AT END OF TIME STEP   1 IN STRESS PERIOD    1
  ---------------------------------------------------------------------------

            1           2           3           4           5           6           7           8           9          10
           11          12          13          14          15          16          17          18          19          20
 ........................................................................................................................
   1    335.4       335.4       335.3       335.2       335.1       334.9       334.6       334.4       334.1       333.7    
        333.3       332.8       332.3       331.6       330.9       330.1       329.1       328.0       326.7       325.2    
   2    335.4       335.4       335.3       335.2       335.1       334.9       334.6       334.4       334.1       333.7    
        333.3       332.8       332.3       331.6       330.9       330.1       329.1       328.0       326.7       325.2    
   3    335.4       335.4       335.3       335.2       335.0       334.9       334.6       334.4       334.0       333.7    
        333.3       332.8       332.2       331.6       330.9       330.1       329.1       328.0       326.7       325.2    
   4    335.4       335.4       335.3       335.2       335.0       334.8       334.6       334.3       334.0       333.7    
        333.2       332.8       332.2       331.6       330.9       330.1       329.1       328.0       326.7       325.2    
   5    335.4       335.4       335.3       335.2       335.0       334.8       334.6       334.3       334.0       333.6    
        333.2       332.7       332.2       331.6       330.9       330.1       329.1       328.0       326.7       325.2    
   6    335.4       335.3       335.3       335.1       335.0       334.8       334.5       334.3       333.9       333.6    
        333.2       332.7       332.2       331.6       330.8       330.0       329.1       328.0       326.7       325.2    
   7    335.4       335.3       335.2       335.1       335.0       334.7       334.5       334.2       333.9       333.5    
        333.1       332.6       332.1       331.5       330.8       330.0       329.1       328.0       326.7       325.2    
   8    335.4       335.3       335.2       335.1       334.9       334.7       334.4       334.1       333.8       333.4    
        333.0       332.6       332.1       331.5       330.8       330.0       329.1       328.0       326.7       325.1    
   9    335.3       335.3       335.2       335.1       334.9       334.7       334.4       334.1       333.7       333.3    
        332.9       332.5       332.0       331.5       330.8       330.0       329.0       328.0       326.7       325.1    
  10    335.3       335.3       335.2       335.1       334.9       334.7       334.4       334.0       333.6       333.1    
        332.8       332.4       332.0       331.4       330.8       330.0       329.0       327.9       326.7       325.1    
  11    335.3       335.3       335.2       335.1       334.9       334.6       334.3       334.0       333.4       332.6    
        332.7       332.4       332.0       331.4       330.8       330.0       329.0       327.9       326.7       325.1    
  12    335.3       335.3       335.2       335.1       334.9       334.7       334.4       334.0       333.6       333.1    
        332.8       332.4       332.0       331.4       330.8       330.0       329.0       327.9       326.7       325.1    
  13    335.3       335.3       335.2       335.1       334.9       334.7       334.4       334.1       333.7       333.3    
        332.9       332.5       332.0       331.5       330.8       330.0       329.0       328.0       326.7       325.1    
  14    335.4       335.3       335.2       335.1       334.9       334.7       334.5       334.1       333.8       333.4    
        333.0       332.6       332.1       331.5       330.8       330.0       329.1       328.0       326.7       325.1    
  15    335.4       335.3       335.2       335.1       335.0       334.7       334.5       334.2       333.9       333.5    
        333.1       332.6       332.1       331.5       330.8       330.0       329.1       328.0       326.7       325.2    
  16    335.4       335.3       335.3       335.1       335.0       334.8       334.5       334.3       333.9       333.6    
        333.2       332.7       332.2       331.6       330.9       330.0       329.1       328.0       326.7       325.2    
  17    335.4       335.4       335.3       335.2       335.0       334.8       334.6       334.3       334.0       333.6    
        333.2       332.7       332.2       331.6       330.9       330.1       329.1       328.0       326.7       325.2    
  18    335.4       335.4       335.3       335.2       335.0       334.8       334.6       334.3       334.0       333.7    
        333.2       332.8       332.2       331.6       330.9       330.1       329.1       328.0       326.7       325.2    
  19    335.4       335.4       335.3       335.2       335.0       334.9       334.6       334.4       334.0       333.7    
        333.3       332.8       332.2       331.6       330.9       330.1       329.1       328.0       326.7       325.2    
  20    335.4       335.4       335.3       335.2       335.1       334.9       334.6       334.4       334.1       333.7    
        333.3       332.8       332.3       331.6       330.9       330.1       329.1       328.0       326.7       325.2    
  21    335.4       335.4       335.3       335.2       335.1       334.9       334.6       334.4       334.1       333.7    
        333.3       332.8       332.3       331.6       330.9       330.1       329.1       328.0       326.7       325.2    
1
              HEAD IN LAYER   3 AT END OF TIME STEP   1 IN STRESS PERIOD    1
  ---------------------------------------------------------------------------

            1           2           3           4           5           6           7           8           9          10
           11          12          13          14          15          16          17          18          19          20
 ........................................................................................................................
   1    331.8       331.8       331.7       331.7       331.6       331.5       331.4       331.3       331.2       331.1    
        331.0       330.9       330.8       330.7       330.6       330.5       330.4       330.3       330.2       330.2    
   2    331.8       331.8       331.7       331.7       331.6       331.5       331.4       331.3       331.2       331.1    
        331.0       330.9       330.8       330.7       330.6       330.5       330.4       330.3       330.2       330.2    
   3    331.8       331.7       331.7       331.7       331.6       331.5       331.4       331.3       331.2       331.1    
        331.0       330.9       330.8       330.6       330.5       330.4       330.4       330.3       330.2       330.2    
   4    331.7       331.7       331.7       331.6       331.6       331.5       331.4       331.3       331.2       331.0    
        330.9       330.8       330.7       330.6       330.5       330.4       330.3       330.3       330.2       330.2    
   5    331.7       331.7       331.7       331.6       331.5       331.4       331.3       331.2       331.1       331.0    
        330.9       330.8       330.7       330.6       330.5       330.4       330.3       330.2       330.2       330.2    
   6    331.7       331.7       331.6       331.6       331.5       331.4       331.3       331.1       331.0       330.9    
        330.8       330.7       330.6       330.5       330.5       330.4       330.3       330.2       330.2       330.1    
   7    331.7       331.7       331.6       331.5       331.4       331.3       331.2       331.1       330.9       330.8    
        330.7       330.6       330.5       330.5       330.4       330.3       330.3       330.2       330.2       330.1    
   8    331.7       331.6       331.6       331.5       331.4       331.3       331.1       330.9       330.8       330.6    
        330.6       330.5       330.5       330.4       330.4       330.3       330.2       330.2       330.1       330.1    
   9    331.7       331.6       331.6       331.5       331.4       331.2       331.0       330.8       330.6       330.4    
        330.4       330.4       330.4       330.4       330.3       330.3       330.2       330.2       330.1       330.1    
  10    331.6       331.6       331.6       331.5       331.3       331.2       331.0       330.7       330.3       330.0    
        330.1       330.2       330.3       330.3       330.3       330.3       330.2       330.2       330.1       330.1    
  11    331.6       331.6       331.5       331.5       331.3       331.2       330.9       330.6       330.1       329.0    
        329.9       330.2       330.3       330.3       330.3       330.3       330.2       330.2       330.1       330.1    
  12    331.6       331.6       331.6       331.5       331.3       331.2       331.0       330.7       330.3       330.0    
        330.1       330.2       330.3       330.3       330.3       330.3       330.2       330.2       330.1       330.1    
  13    331.7       331.6       331.6       331.5       331.4       331.2       331.0       330.8       330.6       330.4    
        330.4       330.4       330.4       330.4       330.3       330.3       330.2       330.2       330.1       330.1    
  14    331.7       331.6       331.6       331.5       331.4       331.3       331.1       330.9       330.8       330.6    
        330.6       330.5       330.5       330.4       330.4       330.3       330.2       330.2       330.1       330.1    
  15    331.7       331.7       331.6       331.5       331.4       331.3       331.2       331.1       330.9       330.8    
        330.7       330.6       330.5       330.5       330.4       330.3       330.3       330.2       330.2       330.1    
  16    331.7       331.7       331.6       331.6       331.5       331.4       331.3       331.1       331.0       330.9    
        330.8       330.7       330.6       330.5       330.5       330.4       330.3       330.2       330.2       330.1    
  17    331.7       331.7       331.7       331.6       331.5       331.4       331.3       331.2       331.1       331.0    
        330.9       330.8       330.7       330.6       330.5       330.4       330.3       330.2       330.2       330.2    
  18    331.7       331.7       331.7       331.6       331.6       331.5       331.4       331.3       331.2       331.0    
        330.9       330.8       330.7       330.6       330.5       330.4       330.3       330.3       330.2       330.2    
  19    331.8       331.7       331.7       331.7       331.6       331.5       331.4       331.3       331.2       331.1    
        331.0       330.9       330.8       330.6       330.5       330.4       330.4       330.3       330.2       330.2    
  20    331.8       331.8       331.7       331.7       331.6       331.5       331.4       331.3       331.2       331.1    
        331.0       330.9       330.8       330.7       330.6       330.5       330.4       330.3       330.2       330.2    
  21    331.8       331.8       331.7       331.7       331.6       331.5       331.4       331.3       331.2       331.1    
        331.0       330.9       330.8       330.7       330.6       330.5       330.4       330.3       330.2       330.2    

 HEAD WILL BE SAVED ON UNIT   50 AT END OF TIME STEP    1, STRESS PERIOD    1
1
  VOLUMETRIC BUDGET FOR ENTIRE MODEL AT END OF TIME STEP    1, STRESS PERIOD   1
  ------------------------------------------------------------------------------

     CUMULATIVE VOLUMES      L**3       RATES FOR THIS TIME STEP      L**3/T
     ------------------                 ------------------------

           IN:                                      IN:
           ---                                      ---
             STORAGE =           0.0000               STORAGE =           0.0000
       CONSTANT HEAD =           0.0000         CONSTANT HEAD =           0.0000
               WELLS =           0.0000                 WELLS =           0.0000
       RIVER LEAKAGE =           0.0000         RIVER LEAKAGE =           0.0000
            RECHARGE =      525000.0000              RECHARGE =      525000.0000

            TOTAL IN =      525000.0000              TOTAL IN =      525000.0000

          OUT:                                     OUT:
          ----                                     ----
             STORAGE =           0.0000               STORAGE =           0.0000
       CONSTANT HEAD =           0.0000         CONSTANT HEAD =           0.0000
               WELLS =      150000.0000                 WELLS =      150000.0000
       RIVER LEAKAGE =      375000.0000         RIVER LEAKAGE =      375000.0000
            RECHARGE =           0.0000              RECHARGE =           0.0000

           TOTAL OUT =      525000.0000             TOTAL OUT =      525000.0000

            IN - OUT =           0.0000              IN - OUT =           0.0000

 PERCENT DISCREPANCY =           0.00     PERCENT DISCREPANCY =           0.00






         TIME SUMMARY AT END OF TIME STEP    1 IN STRESS PERIOD    1
                    SECONDS     MINUTES      HOURS       DAYS        YEARS
                    -----------------------------------------------------------
   TIME STEP LENGTH  86400.      1440.0      24.000      1.0000     2.73785E-03
 STRESS PERIOD TIME  86400.      1440.0      24.000      1.0000     2.73785E-03
         TOTAL TIME  86400.      1440.0      24.000      1.0000     2.73785E-03
1

 Run end date and time (yyyy/mm/dd hh:mm:ss): 2016/02/02 13:12:17
 Elapsed run time:  0.032 Seconds

